
*** ChampSim Multicore Out-of-Order Simulator ***

Warmup Instructions: 20000000
Simulation Instructions: 30000000
Number of CPUs: 1
LLC sets: 2048
LLC ways: 32
Off-chip DRAM Size: 4096 MB Channels: 1 Width: 64-bit Data Rate: 3200 MT/s

CPU 0 runs ../traces//482.sphinx3-1100B.champsimtrace.xz
CPU 0 Bimodal branch predictor
Caught signal: 2
